**************************************
*      Model Generated by MODPEX     *
*Copyright(c) Symmetry Design Systems*
*         All Rights Reserved        *
*    UNPUBLISHED LICENSED SOFTWARE   *
*   Contains Proprietary Information *
*      Which is The Property of      *
*     SYMMETRY OR ITS LICENSORS      *
*    Modeling services provided by   *
* Interface Technologies www.i-t.com *
**************************************
.MODEL Qmje3439 npn
+IS=1e-09 BF=59.4582 NF=0.85 VAF=39.1406
+IKF=0.0136915 ISE=1e-08 NE=2.08001 BR=3.7291
+NR=0.75 VAR=75.9449 IKR=0.136915 ISC=6.52627e-09
+NC=2.91322 RB=108.92 IRB=0.1 RBM=0.1
+RE=0.000432269 RC=0.00216134 XTB=0.357065 XTI=1
+EG=1.05 CJE=4.83045e-11 VJE=0.648998 MJE=0.351618
+TF=5.09574e-09 XTF=1.5 VTF=1 ITF=1
+CJC=1.09937e-11 VJC=0.775323 MJC=0.23 XCJC=0.9
+FC=0.500569 CJS=0 VJS=0.75 MJS=0.5
+TR=1e-07 PTF=0 KF=0 AF=1
* Model generated on Feb 15, 2004
* Model format: PSpice
