Version 4
SHEET 1 1580 840
WIRE 1040 -464 768 -464
WIRE 768 -400 768 -464
WIRE 768 -400 336 -400
WIRE 1040 -384 1040 -464
WIRE 768 -272 768 -400
WIRE 768 -272 624 -272
WIRE 1040 -256 1040 -304
WIRE 336 -112 336 -400
WIRE 624 -112 624 -272
WIRE 768 -112 768 -272
WIRE 480 -96 384 -96
WIRE 576 -96 480 -96
WIRE 480 0 480 -96
WIRE 720 0 720 -96
WIRE 720 0 480 0
WIRE 336 80 336 -16
WIRE 480 80 480 0
WIRE 480 80 336 80
WIRE 624 112 624 -16
WIRE 768 112 768 -16
WIRE 768 112 624 112
WIRE 768 160 768 112
WIRE 336 176 336 80
WIRE 144 224 32 224
WIRE 272 224 224 224
WIRE 32 336 32 224
WIRE 336 464 336 272
WIRE 768 480 768 240
WIRE 32 624 32 416
WIRE 336 624 336 544
FLAG 32 624 0
FLAG 336 624 0
FLAG 1040 -256 0
FLAG 768 480 0
SYMBOL voltage 32 320 R0
SYMATTR InstName V1
SYMATTR Value PULSE(1 1.2 10000)
SYMBOL res 240 208 R90
WINDOW 0 0 56 VBottom 2
WINDOW 3 32 56 VTop 2
SYMATTR InstName R1
SYMATTR Value 1k
SYMBOL res 352 560 R180
WINDOW 0 36 76 Left 2
WINDOW 3 36 40 Left 2
SYMATTR InstName R2
SYMATTR Value 1k
SYMBOL npn 272 176 R0
SYMATTR InstName Q1
SYMATTR Value 2N5550
SYMBOL voltage 1040 -400 R0
SYMATTR InstName V2
SYMATTR Value 170
SYMBOL res 752 144 R0
SYMATTR InstName R3
SYMATTR Value 2k
SYMBOL pmos 720 -16 M180
SYMATTR InstName M3
SYMATTR Value IRF9640
SYMBOL pmos 576 -16 M180
SYMATTR InstName M4
SYMATTR Value IRF9640
SYMBOL pmos 384 -16 R180
SYMATTR InstName M5
SYMATTR Value IRF9640
TEXT 1168 -104 Left 2 !.tran 10m
